@<TRIPOS>MOLECULE
ATP
   43    45     1     0     0
SMALL
bcc


@<TRIPOS>ATOM
      1 PG          -1.4630   -18.5150    50.8220 p5         1 ATP       1.464900
      2 O1G         -1.2090   -18.0430    49.4400 o          1 ATP      -0.962500
      3 O2G         -1.5300   -17.2750    51.6340 o          1 ATP      -0.962500
      4 O3G         -2.8510   -19.0240    50.8640 o          1 ATP      -0.962500
      5 PB           0.2750   -19.5630    52.8510 p5         1 ATP       1.747800
      6 O1B         -0.6560   -20.1450    53.8680 o          1 ATP      -0.957000
      7 O2B          1.5190   -20.4000    52.9670 o          1 ATP      -0.957000
      8 O3B         -0.3050   -19.5070    51.3540 os         1 ATP      -0.819800
      9 PA           1.9300   -17.4650    53.3890 p5         1 ATP       1.596800
     10 O1A          2.5380   -17.6780    52.0570 o          1 ATP      -0.906000
     11 O2A          1.6500   -15.9920    53.4350 o          1 ATP      -0.906000
     12 O3A          0.6260   -18.1970    53.3730 os         1 ATP      -0.831800
     13 O5           2.9180   -17.8830    54.5940 os         1 ATP      -0.579200
     14 C5           2.6240   -17.4710    55.9330 c3         1 ATP       0.228400
     15 C4           2.1670   -18.7010    56.7120 c3         1 ATP       0.017100
     16 O4           2.9630   -19.8680    56.4910 os         1 ATP      -0.428600
     17 C3           1.2670   -18.7570    57.9400 c3         1 ATP       0.142100
     18 O3          -0.0300   -18.1290    57.9260 oh         1 ATP      -0.646800
     19 C2           1.3200   -20.2340    58.3070 c3         1 ATP       0.111100
     20 O2           0.0620   -20.8690    58.1950 oh         1 ATP      -0.650800
     21 C1           2.5980   -20.7080    57.6020 c3         1 ATP       0.180800
     22 N9           3.6340   -21.5680    58.2300 na         1 ATP      -0.194000
     23 C8           3.9520   -22.9070    58.0310 cc         1 ATP       0.445700
     24 N7           5.0160   -23.2570    58.8640 nd         1 ATP      -0.622100
     25 C7           5.2750   -22.1220    59.5800 ca         1 ATP      -0.208200
     26 C6           6.2540   -22.1790    60.5260 ca         1 ATP       0.661200
     27 N6           7.0510   -23.3780    60.8010 nh         1 ATP      -0.916500
     28 N1           6.4270   -21.0100    61.2320 nb         1 ATP      -0.807000
     29 C10          5.5890   -19.9570    60.8820 ca         1 ATP       0.626900
     30 N3           4.6040   -19.9410    59.9160 nb         1 ATP      -0.656000
     31 C9           4.4610   -21.1210    59.2230 ca         1 ATP       0.455800
     32 H            1.8460   -16.7360    55.9250 h1         1 ATP       0.013200
     33 H1           3.4910   -17.0410    56.3900 h1         1 ATP       0.013200
     34 H2           1.2330   -18.5360    56.2160 h1         1 ATP       0.180700
     35 H3           1.6300   -18.0980    58.7010 h1         1 ATP       0.024700
     36 H4          -0.5950   -18.5690    57.2720 ho         1 ATP       0.512000
     37 H5           1.4410   -20.5130    59.3330 h1         1 ATP       0.040700
     38 H6          -0.2810   -20.7510    57.2950 ho         1 ATP       0.514000
     39 H7           2.2400   -21.6590    57.2670 h2         1 ATP       0.108700
     40 H8           3.4760   -23.5420    57.3710 h5         1 ATP       0.091800
     41 H9           6.9020   -24.1990    60.2780 hn         1 ATP       0.384300
     42 H10          7.7350   -23.3630    61.5090 hn         1 ATP       0.384300
     43 H11          5.7200   -19.0800    61.4100 h5         1 ATP       0.027100
@<TRIPOS>BOND
     1     1     2 1   
     2     1     3 1   
     3     1     4 1   
     4     1     8 1   
     5     5     6 1   
     6     5     7 1   
     7     5     8 1   
     8     5    12 1   
     9     9    10 1   
    10     9    11 1   
    11     9    12 1   
    12     9    13 1   
    13    13    14 1   
    14    14    15 1   
    15    14    32 1   
    16    14    33 1   
    17    15    16 1   
    18    15    17 1   
    19    15    34 1   
    20    16    21 1   
    21    17    18 1   
    22    17    19 1   
    23    17    35 1   
    24    18    36 1   
    25    19    20 1   
    26    19    21 1   
    27    19    37 1   
    28    20    38 1   
    29    21    22 1   
    30    21    39 1   
    31    22    23 1   
    32    22    31 1   
    33    23    24 2   
    34    23    40 1   
    35    24    25 1   
    36    25    26 ar  
    37    25    31 ar  
    38    26    27 1   
    39    26    28 ar  
    40    27    41 1   
    41    27    42 1   
    42    28    29 ar  
    43    29    30 ar  
    44    29    43 1   
    45    30    31 ar  
@<TRIPOS>SUBSTRUCTURE
     1 ATP         1 TEMP              0 ****  ****    0 ROOT
