@<TRIPOS>MOLECULE
SO4
    5     4     1     0     0
SMALL
bcc


@<TRIPOS>ATOM
      1 S           30.4470    22.4570    23.5730 s6       204 SO4       1.542800
      2 O1          31.8880    22.7020    23.4870 o        204 SO4      -0.885200
      3 O2          29.8800    22.4270    22.2250 o        204 SO4      -0.885200
      4 O3          29.8070    23.5450    24.3100 o        204 SO4      -0.885200
      5 O4          30.1640    21.2000    24.2390 o        204 SO4      -0.885200
@<TRIPOS>BOND
     1     1     2 1   
     2     1     3 1   
     3     1     4 1   
     4     1     5 1   
@<TRIPOS>SUBSTRUCTURE
     1 SO4         1 TEMP              0 ****  ****    0 ROOT
